MODEL 1
REMARK VINA RESULT:    -7.036      0.000      0.000
REMARK INTER + INTRA:         -12.560
REMARK INTER:                 -11.149
REMARK INTRA:                  -1.412
REMARK UNBOUND:                -1.412
REMARK  10 active torsions:
REMARK  status: ('A' for Active; 'I' for Inactive)
REMARK    1  A    between atoms: C_7  and  C_17 
REMARK    2  A    between atoms: C_8  and  C_18 
REMARK    3  A    between atoms: C_21  and  C_23 
REMARK    4  A    between atoms: C_22  and  C_24 
REMARK    5  A    between atoms: C_27  and  C_29 
REMARK    6  A    between atoms: C_28  and  C_30 
REMARK    7  A    between atoms: C_31  and  C_33 
REMARK    8  A    between atoms: C_32  and  C_34 
REMARK    9  A    between atoms: C_37  and  C_39 
REMARK   10  A    between atoms: C_38  and  C_40 
ROOT
HETATM    1  C   UNL     1      19.276  -6.383  37.996  1.00  0.00     0.001 C 
HETATM    2  C   UNL     1      20.300  -7.249  38.078  1.00  0.00     0.001 C 
ENDROOT
BRANCH   1   3
HETATM    3  C   UNL     1      18.687  -5.751  39.160  1.00  0.00     0.007 C 
HETATM    4  C   UNL     1      17.443  -5.933  39.652  1.00  0.00    -0.062 C 
HETATM    5  C   UNL     1      16.410  -6.854  39.048  1.00  0.00     0.048 C 
BRANCH   4   6
HETATM    6  C   UNL     1      17.056  -5.186  40.854  1.00  0.00     0.007 C 
HETATM    7  C   UNL     1      16.404  -5.674  41.922  1.00  0.00     0.001 C 
BRANCH   7   8
HETATM    8  C   UNL     1      16.066  -4.857  43.071  1.00  0.00     0.007 C 
HETATM    9  C   UNL     1      16.831  -4.609  44.156  1.00  0.00    -0.062 C 
HETATM   10  C   UNL     1      18.222  -5.157  44.371  1.00  0.00     0.048 C 
BRANCH   9  11
HETATM   11  C   UNL     1      16.284  -3.745  45.205  1.00  0.00     0.007 C 
HETATM   12  C   UNL     1      16.971  -2.876  45.966  1.00  0.00     0.009 C 
BRANCH  12  13
HETATM   13  C   UNL     1      16.353  -2.060  47.008  1.00  0.00    -0.048 C 
HETATM   14  C   UNL     1      15.753  -0.716  46.539  1.00  0.00    -0.020 C 
HETATM   15  C   UNL     1      14.860  -0.083  47.642  1.00  0.00     0.014 C 
HETATM   16  C   UNL     1      16.901   0.258  46.191  1.00  0.00     0.020 C 
HETATM   17  C   UNL     1      14.858  -0.876  45.288  1.00  0.00     0.020 C 
HETATM   18  C   UNL     1      15.503  -0.157  49.017  1.00  0.00     0.005 C 
HETATM   19  C   UNL     1      15.750  -1.607  49.409  1.00  0.00     0.034 C 
HETATM   20  C   UNL     1      16.318  -2.467  48.302  1.00  0.00    -0.077 C 
HETATM   21  C   UNL     1      16.809  -3.807  48.799  1.00  0.00     0.044 C 
ENDBRANCH  12  13
ENDBRANCH   9  11
ENDBRANCH   7   8
ENDBRANCH   4   6
ENDBRANCH   1   3
BRANCH   2  22
HETATM   22  C   UNL     1      20.885  -7.873  36.909  1.00  0.00     0.007 C 
HETATM   23  C   UNL     1      20.406  -8.924  36.209  1.00  0.00    -0.062 C 
HETATM   24  C   UNL     1      19.123  -9.652  36.525  1.00  0.00     0.048 C 
BRANCH  23  25
HETATM   25  C   UNL     1      21.183  -9.396  35.058  1.00  0.00     0.007 C 
HETATM   26  C   UNL     1      21.408 -10.674  34.710  1.00  0.00     0.001 C 
BRANCH  26  27
HETATM   27  C   UNL     1      22.203 -11.036  33.553  1.00  0.00     0.007 C 
HETATM   28  C   UNL     1      22.341 -12.257  32.996  1.00  0.00    -0.062 C 
HETATM   29  C   UNL     1      21.661 -13.510  33.492  1.00  0.00     0.048 C 
BRANCH  28  30
HETATM   30  C   UNL     1      23.212 -12.387  31.827  1.00  0.00     0.007 C 
HETATM   31  C   UNL     1      24.110 -13.361  31.598  1.00  0.00     0.009 C 
BRANCH  31  32
HETATM   32  C   UNL     1      24.929 -13.434  30.390  1.00  0.00    -0.048 C 
HETATM   33  C   UNL     1      24.474 -14.475  29.345  1.00  0.00    -0.020 C 
HETATM   34  C   UNL     1      25.128 -14.201  27.965  1.00  0.00     0.014 C 
HETATM   35  C   UNL     1      24.868 -15.889  29.828  1.00  0.00     0.020 C 
HETATM   36  C   UNL     1      22.944 -14.449  29.119  1.00  0.00     0.020 C 
HETATM   37  C   UNL     1      26.618 -13.920  28.078  1.00  0.00     0.005 C 
HETATM   38  C   UNL     1      26.869 -12.704  28.959  1.00  0.00     0.034 C 
HETATM   39  C   UNL     1      26.017 -12.643  30.211  1.00  0.00    -0.077 C 
HETATM   40  C   UNL     1      26.529 -11.632  31.211  1.00  0.00     0.044 C 
ENDBRANCH  31  32
ENDBRANCH  28  30
ENDBRANCH  26  27
ENDBRANCH  23  25
ENDBRANCH   2  22
TORSDOF 10
ENDMDL
