MODEL 1
REMARK VINA RESULT:    -7.036      0.000      0.000
REMARK INTER + INTRA:         -12.560
REMARK INTER:                 -11.149
REMARK INTRA:                  -1.412
REMARK UNBOUND:                -1.412
REMARK  10 active torsions:
REMARK  status: ('A' for Active; 'I' for Inactive)
REMARK    1  A    between atoms: C_7  and  C_17 
REMARK    2  A    between atoms: C_8  and  C_18 
REMARK    3  A    between atoms: C_21  and  C_23 
REMARK    4  A    between atoms: C_22  and  C_24 
REMARK    5  A    between atoms: C_27  and  C_29 
REMARK    6  A    between atoms: C_28  and  C_30 
REMARK    7  A    between atoms: C_31  and  C_33 
REMARK    8  A    between atoms: C_32  and  C_34 
REMARK    9  A    between atoms: C_37  and  C_39 
REMARK   10  A    between atoms: C_38  and  C_40 
ROOT
HETATM    1  C   UNL     1      19.276  -6.383  37.996  1.00  0.00     0.001 C 
HETATM    2  C   UNL     1      20.300  -7.249  38.078  1.00  0.00     0.001 C 
ENDROOT
BRANCH   1   3
HETATM    3  C   UNL     1      18.687  -5.751  39.160  1.00  0.00     0.007 C 
HETATM    4  C   UNL     1      17.443  -5.933  39.652  1.00  0.00    -0.062 C 
HETATM    5  C   UNL     1      16.410  -6.854  39.048  1.00  0.00     0.048 C 
BRANCH   4   6
HETATM    6  C   UNL     1      17.056  -5.186  40.854  1.00  0.00     0.007 C 
HETATM    7  C   UNL     1      16.404  -5.674  41.922  1.00  0.00     0.001 C 
BRANCH   7   8
HETATM    8  C   UNL     1      16.066  -4.857  43.071  1.00  0.00     0.007 C 
HETATM    9  C   UNL     1      16.831  -4.609  44.156  1.00  0.00    -0.062 C 
HETATM   10  C   UNL     1      18.222  -5.157  44.371  1.00  0.00     0.048 C 
BRANCH   9  11
HETATM   11  C   UNL     1      16.284  -3.745  45.205  1.00  0.00     0.007 C 
HETATM   12  C   UNL     1      16.971  -2.876  45.966  1.00  0.00     0.009 C 
BRANCH  12  13
HETATM   13  C   UNL     1      16.353  -2.060  47.008  1.00  0.00    -0.048 C 
HETATM   14  C   UNL     1      15.753  -0.716  46.539  1.00  0.00    -0.020 C 
HETATM   15  C   UNL     1      14.860  -0.083  47.642  1.00  0.00     0.014 C 
HETATM   16  C   UNL     1      16.901   0.258  46.191  1.00  0.00     0.020 C 
HETATM   17  C   UNL     1      14.858  -0.876  45.288  1.00  0.00     0.020 C 
HETATM   18  C   UNL     1      15.503  -0.157  49.017  1.00  0.00     0.005 C 
HETATM   19  C   UNL     1      15.750  -1.607  49.409  1.00  0.00     0.034 C 
HETATM   20  C   UNL     1      16.318  -2.467  48.302  1.00  0.00    -0.077 C 
HETATM   21  C   UNL     1      16.809  -3.807  48.799  1.00  0.00     0.044 C 
ENDBRANCH  12  13
ENDBRANCH   9  11
ENDBRANCH   7   8
ENDBRANCH   4   6
ENDBRANCH   1   3
BRANCH   2  22
HETATM   22  C   UNL     1      20.885  -7.873  36.909  1.00  0.00     0.007 C 
HETATM   23  C   UNL     1      20.406  -8.924  36.209  1.00  0.00    -0.062 C 
HETATM   24  C   UNL     1      19.123  -9.652  36.525  1.00  0.00     0.048 C 
BRANCH  23  25
HETATM   25  C   UNL     1      21.183  -9.396  35.058  1.00  0.00     0.007 C 
HETATM   26  C   UNL     1      21.408 -10.674  34.710  1.00  0.00     0.001 C 
BRANCH  26  27
HETATM   27  C   UNL     1      22.203 -11.036  33.553  1.00  0.00     0.007 C 
HETATM   28  C   UNL     1      22.341 -12.257  32.996  1.00  0.00    -0.062 C 
HETATM   29  C   UNL     1      21.661 -13.510  33.492  1.00  0.00     0.048 C 
BRANCH  28  30
HETATM   30  C   UNL     1      23.212 -12.387  31.827  1.00  0.00     0.007 C 
HETATM   31  C   UNL     1      24.110 -13.361  31.598  1.00  0.00     0.009 C 
BRANCH  31  32
HETATM   32  C   UNL     1      24.929 -13.434  30.390  1.00  0.00    -0.048 C 
HETATM   33  C   UNL     1      24.474 -14.475  29.345  1.00  0.00    -0.020 C 
HETATM   34  C   UNL     1      25.128 -14.201  27.965  1.00  0.00     0.014 C 
HETATM   35  C   UNL     1      24.868 -15.889  29.828  1.00  0.00     0.020 C 
HETATM   36  C   UNL     1      22.944 -14.449  29.119  1.00  0.00     0.020 C 
HETATM   37  C   UNL     1      26.618 -13.920  28.078  1.00  0.00     0.005 C 
HETATM   38  C   UNL     1      26.869 -12.704  28.959  1.00  0.00     0.034 C 
HETATM   39  C   UNL     1      26.017 -12.643  30.211  1.00  0.00    -0.077 C 
HETATM   40  C   UNL     1      26.529 -11.632  31.211  1.00  0.00     0.044 C 
ENDBRANCH  31  32
ENDBRANCH  28  30
ENDBRANCH  26  27
ENDBRANCH  23  25
ENDBRANCH   2  22
TORSDOF 10
ENDMDL
MODEL 2
REMARK VINA RESULT:    -7.004      1.027     18.255
REMARK INTER + INTRA:         -12.511
REMARK INTER:                 -10.870
REMARK INTRA:                  -1.641
REMARK UNBOUND:                -1.412
REMARK  10 active torsions:
REMARK  status: ('A' for Active; 'I' for Inactive)
REMARK    1  A    between atoms: C_7  and  C_17 
REMARK    2  A    between atoms: C_8  and  C_18 
REMARK    3  A    between atoms: C_21  and  C_23 
REMARK    4  A    between atoms: C_22  and  C_24 
REMARK    5  A    between atoms: C_27  and  C_29 
REMARK    6  A    between atoms: C_28  and  C_30 
REMARK    7  A    between atoms: C_31  and  C_33 
REMARK    8  A    between atoms: C_32  and  C_34 
REMARK    9  A    between atoms: C_37  and  C_39 
REMARK   10  A    between atoms: C_38  and  C_40 
ROOT
HETATM    1  C   UNL     1      20.006  -8.048  37.921  1.00  0.00     0.001 C 
HETATM    2  C   UNL     1      18.876  -7.322  37.893  1.00  0.00     0.001 C 
ENDROOT
BRANCH   1   3
HETATM    3  C   UNL     1      20.455  -8.847  36.798  1.00  0.00     0.007 C 
HETATM    4  C   UNL     1      20.423 -10.192  36.682  1.00  0.00    -0.062 C 
HETATM    5  C   UNL     1      19.903 -11.131  37.744  1.00  0.00     0.048 C 
BRANCH   4   6
HETATM    6  C   UNL     1      20.930 -10.793  35.443  1.00  0.00     0.007 C 
HETATM    7  C   UNL     1      21.822 -10.249  34.598  1.00  0.00     0.001 C 
BRANCH   7   8
HETATM    8  C   UNL     1      22.268 -10.923  33.394  1.00  0.00     0.007 C 
HETATM    9  C   UNL     1      23.314 -11.767  33.265  1.00  0.00    -0.062 C 
HETATM   10  C   UNL     1      24.236 -12.172  34.391  1.00  0.00     0.048 C 
BRANCH   9  11
HETATM   11  C   UNL     1      23.583 -12.337  31.943  1.00  0.00     0.007 C 
HETATM   12  C   UNL     1      24.178 -13.514  31.685  1.00  0.00     0.009 C 
BRANCH  12  13
HETATM   13  C   UNL     1      24.427 -14.007  30.332  1.00  0.00    -0.048 C 
HETATM   14  C   UNL     1      25.909 -14.047  29.897  1.00  0.00    -0.020 C 
HETATM   15  C   UNL     1      26.088 -14.865  28.588  1.00  0.00     0.014 C 
HETATM   16  C   UNL     1      26.410 -12.604  29.668  1.00  0.00     0.020 C 
HETATM   17  C   UNL     1      26.817 -14.712  30.958  1.00  0.00     0.020 C 
HETATM   18  C   UNL     1      25.029 -14.532  27.550  1.00  0.00     0.005 C 
HETATM   19  C   UNL     1      23.640 -14.841  28.093  1.00  0.00     0.034 C 
HETATM   20  C   UNL     1      23.413 -14.397  29.521  1.00  0.00    -0.077 C 
HETATM   21  C   UNL     1      21.959 -14.463  29.927  1.00  0.00     0.044 C 
ENDBRANCH  12  13
ENDBRANCH   9  11
ENDBRANCH   7   8
ENDBRANCH   4   6
ENDBRANCH   1   3
BRANCH   2  22
HETATM   22  C   UNL     1      18.437  -6.524  39.019  1.00  0.00     0.007 C 
HETATM   23  C   UNL     1      17.182  -6.401  39.503  1.00  0.00    -0.062 C 
HETATM   24  C   UNL     1      15.974  -7.109  38.943  1.00  0.00     0.048 C 
BRANCH  23  25
HETATM   25  C   UNL     1      16.973  -5.517  40.655  1.00  0.00     0.007 C 
HETATM   26  C   UNL     1      16.128  -5.722  41.680  1.00  0.00     0.001 C 
BRANCH  26  27
HETATM   27  C   UNL     1      15.987  -4.776  42.770  1.00  0.00     0.007 C 
HETATM   28  C   UNL     1      16.705  -4.722  43.912  1.00  0.00    -0.062 C 
HETATM   29  C   UNL     1      17.827  -5.667  44.269  1.00  0.00     0.048 C 
BRANCH  28  30
HETATM   30  C   UNL     1      16.376  -3.676  44.883  1.00  0.00     0.007 C 
HETATM   31  C   UNL     1      17.187  -3.178  45.832  1.00  0.00     0.009 C 
BRANCH  31  32
HETATM   32  C   UNL     1      16.791  -2.113  46.752  1.00  0.00    -0.048 C 
HETATM   33  C   UNL     1      15.997  -2.574  47.993  1.00  0.00    -0.020 C 
HETATM   34  C   UNL     1      15.982  -1.473  49.085  1.00  0.00     0.014 C 
HETATM   35  C   UNL     1      14.545  -2.904  47.576  1.00  0.00     0.020 C 
HETATM   36  C   UNL     1      16.610  -3.835  48.647  1.00  0.00     0.020 C 
HETATM   37  C   UNL     1      15.666  -0.099  48.516  1.00  0.00     0.005 C 
HETATM   38  C   UNL     1      16.699   0.299  47.470  1.00  0.00     0.034 C 
HETATM   39  C   UNL     1      17.096  -0.812  46.519  1.00  0.00    -0.077 C 
HETATM   40  C   UNL     1      17.840  -0.298  45.308  1.00  0.00     0.044 C 
ENDBRANCH  31  32
ENDBRANCH  28  30
ENDBRANCH  26  27
ENDBRANCH  23  25
ENDBRANCH   2  22
TORSDOF 10
ENDMDL
MODEL 3
REMARK VINA RESULT:    -6.896      0.971     18.166
REMARK INTER + INTRA:         -12.338
REMARK INTER:                 -10.751
REMARK INTRA:                  -1.587
REMARK UNBOUND:                -1.412
REMARK  10 active torsions:
REMARK  status: ('A' for Active; 'I' for Inactive)
REMARK    1  A    between atoms: C_7  and  C_17 
REMARK    2  A    between atoms: C_8  and  C_18 
REMARK    3  A    between atoms: C_21  and  C_23 
REMARK    4  A    between atoms: C_22  and  C_24 
REMARK    5  A    between atoms: C_27  and  C_29 
REMARK    6  A    between atoms: C_28  and  C_30 
REMARK    7  A    between atoms: C_31  and  C_33 
REMARK    8  A    between atoms: C_32  and  C_34 
REMARK    9  A    between atoms: C_37  and  C_39 
REMARK   10  A    between atoms: C_38  and  C_40 
ROOT
HETATM    1  C   UNL     1      20.717  -7.640  38.900  1.00  0.00     0.001 C 
HETATM    2  C   UNL     1      19.554  -7.907  39.518  1.00  0.00     0.001 C 
ENDROOT
BRANCH   1   3
HETATM    3  C   UNL     1      21.282  -8.503  37.883  1.00  0.00     0.007 C 
HETATM    4  C   UNL     1      20.909  -8.600  36.588  1.00  0.00    -0.062 C 
HETATM    5  C   UNL     1      19.793  -7.803  35.957  1.00  0.00     0.048 C 
BRANCH   4   6
HETATM    6  C   UNL     1      21.630  -9.546  35.729  1.00  0.00     0.007 C 
HETATM    7  C   UNL     1      21.279  -9.925  34.488  1.00  0.00     0.001 C 
BRANCH   7   8
HETATM    8  C   UNL     1      22.059 -10.867  33.710  1.00  0.00     0.007 C 
HETATM    9  C   UNL     1      21.910 -12.208  33.655  1.00  0.00    -0.062 C 
HETATM   10  C   UNL     1      20.870 -12.990  34.421  1.00  0.00     0.048 C 
BRANCH   9  11
HETATM   11  C   UNL     1      22.817 -12.969  32.792  1.00  0.00     0.007 C 
HETATM   12  C   UNL     1      23.460 -12.510  31.704  1.00  0.00     0.009 C 
BRANCH  12  13
HETATM   13  C   UNL     1      24.337 -13.340  30.882  1.00  0.00    -0.048 C 
HETATM   14  C   UNL     1      25.850 -13.183  31.148  1.00  0.00    -0.020 C 
HETATM   15  C   UNL     1      26.663 -14.314  30.459  1.00  0.00     0.014 C 
HETATM   16  C   UNL     1      26.322 -11.815  30.606  1.00  0.00     0.020 C 
HETATM   17  C   UNL     1      26.193 -13.252  32.655  1.00  0.00     0.020 C 
HETATM   18  C   UNL     1      26.193 -14.577  29.038  1.00  0.00     0.005 C 
HETATM   19  C   UNL     1      24.731 -15.001  29.033  1.00  0.00     0.034 C 
HETATM   20  C   UNL     1      23.840 -14.187  29.946  1.00  0.00    -0.077 C 
HETATM   21  C   UNL     1      22.371 -14.445  29.707  1.00  0.00     0.044 C 
ENDBRANCH  12  13
ENDBRANCH   9  11
ENDBRANCH   7   8
ENDBRANCH   4   6
ENDBRANCH   1   3
BRANCH   2  22
HETATM   22  C   UNL     1      18.995  -7.036  40.532  1.00  0.00     0.007 C 
HETATM   23  C   UNL     1      17.855  -6.315  40.462  1.00  0.00    -0.062 C 
HETATM   24  C   UNL     1      16.922  -6.298  39.277  1.00  0.00     0.048 C 
BRANCH  23  25
HETATM   25  C   UNL     1      17.492  -5.488  41.618  1.00  0.00     0.007 C 
HETATM   26  C   UNL     1      16.483  -5.708  42.478  1.00  0.00     0.001 C 
BRANCH  26  27
HETATM   27  C   UNL     1      16.201  -4.818  43.587  1.00  0.00     0.007 C 
HETATM   28  C   UNL     1      16.704  -4.876  44.839  1.00  0.00    -0.062 C 
HETATM   29  C   UNL     1      17.690  -5.911  45.322  1.00  0.00     0.048 C 
BRANCH  28  30
HETATM   30  C   UNL     1      16.264  -3.868  45.805  1.00  0.00     0.007 C 
HETATM   31  C   UNL     1      17.013  -2.890  46.343  1.00  0.00     0.009 C 
BRANCH  31  32
HETATM   32  C   UNL     1      16.493  -1.903  47.287  1.00  0.00    -0.048 C 
HETATM   33  C   UNL     1      16.114  -0.538  46.673  1.00  0.00    -0.020 C 
HETATM   34  C   UNL     1      15.211   0.274  47.638  1.00  0.00     0.014 C 
HETATM   35  C   UNL     1      17.402   0.264  46.377  1.00  0.00     0.020 C 
HETATM   36  C   UNL     1      15.323  -0.688  45.352  1.00  0.00     0.020 C 
HETATM   37  C   UNL     1      15.734   0.264  49.065  1.00  0.00     0.005 C 
HETATM   38  C   UNL     1      15.815  -1.161  49.596  1.00  0.00     0.034 C 
HETATM   39  C   UNL     1      16.362  -2.173  48.610  1.00  0.00    -0.077 C 
HETATM   40  C   UNL     1      16.747  -3.476  49.272  1.00  0.00     0.044 C 
ENDBRANCH  31  32
ENDBRANCH  28  30
ENDBRANCH  26  27
ENDBRANCH  23  25
ENDBRANCH   2  22
TORSDOF 10
ENDMDL
MODEL 4
REMARK VINA RESULT:    -6.835      2.522     18.599
REMARK INTER + INTRA:         -12.243
REMARK INTER:                 -10.676
REMARK INTRA:                  -1.567
REMARK UNBOUND:                -1.412
REMARK  10 active torsions:
REMARK  status: ('A' for Active; 'I' for Inactive)
REMARK    1  A    between atoms: C_7  and  C_17 
REMARK    2  A    between atoms: C_8  and  C_18 
REMARK    3  A    between atoms: C_21  and  C_23 
REMARK    4  A    between atoms: C_22  and  C_24 
REMARK    5  A    between atoms: C_27  and  C_29 
REMARK    6  A    between atoms: C_28  and  C_30 
REMARK    7  A    between atoms: C_31  and  C_33 
REMARK    8  A    between atoms: C_32  and  C_34 
REMARK    9  A    between atoms: C_37  and  C_39 
REMARK   10  A    between atoms: C_38  and  C_40 
ROOT
HETATM    1  C   UNL     1      17.819  -5.354  41.660  1.00  0.00     0.001 C 
HETATM    2  C   UNL     1      17.075  -5.631  42.744  1.00  0.00     0.001 C 
ENDROOT
BRANCH   1   3
HETATM    3  C   UNL     1      18.016  -6.300  40.580  1.00  0.00     0.007 C 
HETATM    4  C   UNL     1      17.208  -6.515  39.519  1.00  0.00    -0.062 C 
HETATM    5  C   UNL     1      15.910  -5.786  39.270  1.00  0.00     0.048 C 
BRANCH   4   6
HETATM    6  C   UNL     1      17.609  -7.528  38.536  1.00  0.00     0.007 C 
HETATM    7  C   UNL     1      18.705  -7.498  37.759  1.00  0.00     0.001 C 
BRANCH   7   8
HETATM    8  C   UNL     1      19.022  -8.551  36.815  1.00  0.00     0.007 C 
HETATM    9  C   UNL     1      19.760  -9.660  37.039  1.00  0.00    -0.062 C 
HETATM   10  C   UNL     1      20.407 -10.010  38.357  1.00  0.00     0.048 C 
BRANCH   9  11
HETATM   11  C   UNL     1      19.951 -10.598  35.930  1.00  0.00     0.007 C 
HETATM   12  C   UNL     1      21.027 -11.374  35.715  1.00  0.00     0.009 C 
BRANCH  12  13
HETATM   13  C   UNL     1      21.150 -12.275  34.570  1.00  0.00    -0.048 C 
HETATM   14  C   UNL     1      22.244 -11.907  33.545  1.00  0.00    -0.020 C 
HETATM   15  C   UNL     1      22.500 -13.075  32.552  1.00  0.00     0.014 C 
HETATM   16  C   UNL     1      21.801 -10.655  32.754  1.00  0.00     0.020 C 
HETATM   17  C   UNL     1      23.602 -11.598  34.218  1.00  0.00     0.020 C 
HETATM   18  C   UNL     1      21.208 -13.699  32.052  1.00  0.00     0.005 C 
HETATM   19  C   UNL     1      20.404 -14.261  33.217  1.00  0.00     0.034 C 
HETATM   20  C   UNL     1      20.345 -13.357  34.429  1.00  0.00    -0.077 C 
HETATM   21  C   UNL     1      19.322 -13.812  35.444  1.00  0.00     0.044 C 
ENDBRANCH  12  13
ENDBRANCH   9  11
ENDBRANCH   7   8
ENDBRANCH   4   6
ENDBRANCH   1   3
BRANCH   2  22
HETATM   22  C   UNL     1      16.882  -4.677  43.817  1.00  0.00     0.007 C 
HETATM   23  C   UNL     1      17.154  -4.847  45.129  1.00  0.00    -0.062 C 
HETATM   24  C   UNL     1      17.741  -6.100  45.728  1.00  0.00     0.048 C 
BRANCH  23  25
HETATM   25  C   UNL     1      16.860  -3.736  46.041  1.00  0.00     0.007 C 
HETATM   26  C   UNL     1      16.511  -2.485  45.697  1.00  0.00     0.001 C 
BRANCH  26  27
HETATM   27  C   UNL     1      16.252  -1.453  46.682  1.00  0.00     0.007 C 
HETATM   28  C   UNL     1      15.553  -0.310  46.514  1.00  0.00    -0.062 C 
HETATM   29  C   UNL     1      14.887   0.110  45.226  1.00  0.00     0.048 C 
BRANCH  28  30
HETATM   30  C   UNL     1      15.430   0.596  47.658  1.00  0.00     0.007 C 
HETATM   31  C   UNL     1      16.435   1.126  48.375  1.00  0.00     0.009 C 
BRANCH  31  32
HETATM   32  C   UNL     1      16.230   2.045  49.492  1.00  0.00    -0.048 C 
HETATM   33  C   UNL     1      16.703   3.494  49.251  1.00  0.00    -0.020 C 
HETATM   34  C   UNL     1      16.087   4.462  50.295  1.00  0.00     0.014 C 
HETATM   35  C   UNL     1      18.245   3.551  49.346  1.00  0.00     0.020 C 
HETATM   36  C   UNL     1      16.284   4.024  47.859  1.00  0.00     0.020 C 
HETATM   37  C   UNL     1      16.177   3.918  51.711  1.00  0.00     0.005 C 
HETATM   38  C   UNL     1      15.444   2.588  51.822  1.00  0.00     0.034 C 
HETATM   39  C   UNL     1      15.670   1.642  50.661  1.00  0.00    -0.077 C 
HETATM   40  C   UNL     1      15.219   0.232  50.966  1.00  0.00     0.044 C 
ENDBRANCH  31  32
ENDBRANCH  28  30
ENDBRANCH  26  27
ENDBRANCH  23  25
ENDBRANCH   2  22
TORSDOF 10
ENDMDL
MODEL 5
REMARK VINA RESULT:    -6.814      1.009     18.215
REMARK INTER + INTRA:         -12.208
REMARK INTER:                 -10.597
REMARK INTRA:                  -1.612
REMARK UNBOUND:                -1.412
REMARK  10 active torsions:
REMARK  status: ('A' for Active; 'I' for Inactive)
REMARK    1  A    between atoms: C_7  and  C_17 
REMARK    2  A    between atoms: C_8  and  C_18 
REMARK    3  A    between atoms: C_21  and  C_23 
REMARK    4  A    between atoms: C_22  and  C_24 
REMARK    5  A    between atoms: C_27  and  C_29 
REMARK    6  A    between atoms: C_28  and  C_30 
REMARK    7  A    between atoms: C_31  and  C_33 
REMARK    8  A    between atoms: C_32  and  C_34 
REMARK    9  A    between atoms: C_37  and  C_39 
REMARK   10  A    between atoms: C_38  and  C_40 
ROOT
HETATM    1  C   UNL     1      20.567  -7.155  38.215  1.00  0.00     0.001 C 
HETATM    2  C   UNL     1      19.469  -7.515  38.900  1.00  0.00     0.001 C 
ENDROOT
BRANCH   1   3
HETATM    3  C   UNL     1      21.117  -7.950  37.136  1.00  0.00     0.007 C 
HETATM    4  C   UNL     1      21.886  -9.056  37.239  1.00  0.00    -0.062 C 
HETATM    5  C   UNL     1      22.329  -9.671  38.545  1.00  0.00     0.048 C 
BRANCH   4   6
HETATM    6  C   UNL     1      22.330  -9.709  36.003  1.00  0.00     0.007 C 
HETATM    7  C   UNL     1      21.590  -9.923  34.902  1.00  0.00     0.001 C 
BRANCH   7   8
HETATM    8  C   UNL     1      22.118 -10.577  33.721  1.00  0.00     0.007 C 
HETATM    9  C   UNL     1      22.128 -11.900  33.451  1.00  0.00    -0.062 C 
HETATM   10  C   UNL     1      21.572 -12.969  34.361  1.00  0.00     0.048 C 
BRANCH   9  11
HETATM   11  C   UNL     1      22.717 -12.342  32.185  1.00  0.00     0.007 C 
HETATM   12  C   UNL     1      23.654 -13.293  32.026  1.00  0.00     0.009 C 
BRANCH  12  13
HETATM   13  C   UNL     1      24.206 -13.665  30.725  1.00  0.00    -0.048 C 
HETATM   14  C   UNL     1      23.441 -14.771  29.966  1.00  0.00    -0.020 C 
HETATM   15  C   UNL     1      23.915 -14.869  28.489  1.00  0.00     0.014 C 
HETATM   16  C   UNL     1      23.678 -16.127  30.667  1.00  0.00     0.020 C 
HETATM   17  C   UNL     1      21.917 -14.508  29.920  1.00  0.00     0.020 C 
HETATM   18  C   UNL     1      25.428 -14.808  28.364  1.00  0.00     0.005 C 
HETATM   19  C   UNL     1      25.954 -13.493  28.923  1.00  0.00     0.034 C 
HETATM   20  C   UNL     1      25.322 -13.072  30.232  1.00  0.00    -0.077 C 
HETATM   21  C   UNL     1      26.055 -11.927  30.891  1.00  0.00     0.044 C 
ENDBRANCH  12  13
ENDBRANCH   9  11
ENDBRANCH   7   8
ENDBRANCH   4   6
ENDBRANCH   1   3
BRANCH   2  22
HETATM   22  C   UNL     1      18.925  -6.712  39.976  1.00  0.00     0.007 C 
HETATM   23  C   UNL     1      17.689  -6.173  40.059  1.00  0.00    -0.062 C 
HETATM   24  C   UNL     1      16.613  -6.331  39.013  1.00  0.00     0.048 C 
BRANCH  23  25
HETATM   25  C   UNL     1      17.364  -5.379  41.248  1.00  0.00     0.007 C 
HETATM   26  C   UNL     1      16.427  -5.661  42.170  1.00  0.00     0.001 C 
BRANCH  26  27
HETATM   27  C   UNL     1      16.175  -4.799  43.309  1.00  0.00     0.007 C 
HETATM   28  C   UNL     1      16.641  -4.940  44.568  1.00  0.00    -0.062 C 
HETATM   29  C   UNL     1      17.545  -6.056  45.031  1.00  0.00     0.048 C 
BRANCH  28  30
HETATM   30  C   UNL     1      16.243  -3.944  45.565  1.00  0.00     0.007 C 
HETATM   31  C   UNL     1      16.892  -2.806  45.867  1.00  0.00     0.009 C 
BRANCH  31  32
HETATM   32  C   UNL     1      16.416  -1.848  46.862  1.00  0.00    -0.048 C 
HETATM   33  C   UNL     1      17.062  -1.970  48.259  1.00  0.00    -0.020 C 
HETATM   34  C   UNL     1      16.812  -0.691  49.101  1.00  0.00     0.014 C 
HETATM   35  C   UNL     1      16.465  -3.193  48.992  1.00  0.00     0.020 C 
HETATM   36  C   UNL     1      18.596  -2.153  48.182  1.00  0.00     0.020 C 
HETATM   37  C   UNL     1      15.366  -0.227  49.032  1.00  0.00     0.005 C 
HETATM   38  C   UNL     1      14.971   0.081  47.594  1.00  0.00     0.034 C 
HETATM   39  C   UNL     1      15.465  -0.924  46.573  1.00  0.00    -0.077 C 
HETATM   40  C   UNL     1      14.775  -0.778  45.237  1.00  0.00     0.044 C 
ENDBRANCH  31  32
ENDBRANCH  28  30
ENDBRANCH  26  27
ENDBRANCH  23  25
ENDBRANCH   2  22
TORSDOF 10
ENDMDL
MODEL 6
REMARK VINA RESULT:    -6.802      0.889      1.860
REMARK INTER + INTRA:         -12.191
REMARK INTER:                 -10.765
REMARK INTRA:                  -1.426
REMARK UNBOUND:                -1.412
REMARK  10 active torsions:
REMARK  status: ('A' for Active; 'I' for Inactive)
REMARK    1  A    between atoms: C_7  and  C_17 
REMARK    2  A    between atoms: C_8  and  C_18 
REMARK    3  A    between atoms: C_21  and  C_23 
REMARK    4  A    between atoms: C_22  and  C_24 
REMARK    5  A    between atoms: C_27  and  C_29 
REMARK    6  A    between atoms: C_28  and  C_30 
REMARK    7  A    between atoms: C_31  and  C_33 
REMARK    8  A    between atoms: C_32  and  C_34 
REMARK    9  A    between atoms: C_37  and  C_39 
REMARK   10  A    between atoms: C_38  and  C_40 
ROOT
HETATM    1  C   UNL     1      18.905  -6.574  38.288  1.00  0.00     0.001 C 
HETATM    2  C   UNL     1      19.592  -7.725  38.383  1.00  0.00     0.001 C 
ENDROOT
BRANCH   1   3
HETATM    3  C   UNL     1      18.330  -5.906  39.437  1.00  0.00     0.007 C 
HETATM    4  C   UNL     1      17.051  -5.963  39.866  1.00  0.00    -0.062 C 
HETATM    5  C   UNL     1      15.957  -6.757  39.192  1.00  0.00     0.048 C 
BRANCH   4   6
HETATM    6  C   UNL     1      16.687  -5.203  41.066  1.00  0.00     0.007 C 
HETATM    7  C   UNL     1      16.690  -5.656  42.331  1.00  0.00     0.001 C 
BRANCH   7   8
HETATM    8  C   UNL     1      16.316  -4.826  43.459  1.00  0.00     0.007 C 
HETATM    9  C   UNL     1      16.748  -4.931  44.734  1.00  0.00    -0.062 C 
HETATM   10  C   UNL     1      17.730  -5.967  45.228  1.00  0.00     0.048 C 
BRANCH   9  11
HETATM   11  C   UNL     1      16.234  -3.975  45.719  1.00  0.00     0.007 C 
HETATM   12  C   UNL     1      16.916  -2.965  46.285  1.00  0.00     0.009 C 
BRANCH  12  13
HETATM   13  C   UNL     1      16.335  -2.062  47.277  1.00  0.00    -0.048 C 
HETATM   14  C   UNL     1      15.757  -0.742  46.722  1.00  0.00    -0.020 C 
HETATM   15  C   UNL     1      14.899  -0.011  47.791  1.00  0.00     0.014 C 
HETATM   16  C   UNL     1      16.919   0.178  46.285  1.00  0.00     0.020 C 
HETATM   17  C   UNL     1      14.835  -0.970  45.501  1.00  0.00     0.020 C 
HETATM   18  C   UNL     1      15.566  -0.001  49.157  1.00  0.00     0.005 C 
HETATM   19  C   UNL     1      15.788  -1.425  49.649  1.00  0.00     0.034 C 
HETATM   20  C   UNL     1      16.316  -2.375  48.596  1.00  0.00    -0.077 C 
HETATM   21  C   UNL     1      16.786  -3.687  49.180  1.00  0.00     0.044 C 
ENDBRANCH  12  13
ENDBRANCH   9  11
ENDBRANCH   7   8
ENDBRANCH   4   6
ENDBRANCH   1   3
BRANCH   2  22
HETATM   22  C   UNL     1      20.167  -8.384  37.228  1.00  0.00     0.007 C 
HETATM   23  C   UNL     1      21.470  -8.444  36.876  1.00  0.00    -0.062 C 
HETATM   24  C   UNL     1      22.599  -7.822  37.660  1.00  0.00     0.048 C 
BRANCH  23  25
HETATM   25  C   UNL     1      21.818  -9.164  35.646  1.00  0.00     0.007 C 
HETATM   26  C   UNL     1      22.145 -10.463  35.542  1.00  0.00     0.001 C 
BRANCH  26  27
HETATM   27  C   UNL     1      22.485 -11.078  34.273  1.00  0.00     0.007 C 
HETATM   28  C   UNL     1      22.175 -12.322  33.851  1.00  0.00    -0.062 C 
HETATM   29  C   UNL     1      21.384 -13.329  34.650  1.00  0.00     0.048 C 
BRANCH  28  30
HETATM   30  C   UNL     1      22.637 -12.734  32.524  1.00  0.00     0.007 C 
HETATM   31  C   UNL     1      23.400 -13.802  32.235  1.00  0.00     0.009 C 
BRANCH  31  32
HETATM   32  C   UNL     1      23.802 -14.160  30.876  1.00  0.00    -0.048 C 
HETATM   33  C   UNL     1      25.321 -14.124  30.606  1.00  0.00    -0.020 C 
HETATM   34  C   UNL     1      25.674 -14.897  29.307  1.00  0.00     0.014 C 
HETATM   35  C   UNL     1      25.781 -12.655  30.470  1.00  0.00     0.020 C 
HETATM   36  C   UNL     1      26.136 -14.784  31.744  1.00  0.00     0.020 C 
HETATM   37  C   UNL     1      24.744 -14.546  28.157  1.00  0.00     0.005 C 
HETATM   38  C   UNL     1      23.301 -14.874  28.514  1.00  0.00     0.034 C 
HETATM   39  C   UNL     1      22.896 -14.492  29.923  1.00  0.00    -0.077 C 
HETATM   40  C   UNL     1      21.397 -14.512  30.119  1.00  0.00     0.044 C 
ENDBRANCH  31  32
ENDBRANCH  28  30
ENDBRANCH  26  27
ENDBRANCH  23  25
ENDBRANCH   2  22
TORSDOF 10
ENDMDL
MODEL 7
REMARK VINA RESULT:    -6.795      2.179     18.417
REMARK INTER + INTRA:         -12.180
REMARK INTER:                 -10.543
REMARK INTRA:                  -1.636
REMARK UNBOUND:                -1.412
REMARK  10 active torsions:
REMARK  status: ('A' for Active; 'I' for Inactive)
REMARK    1  A    between atoms: C_7  and  C_17 
REMARK    2  A    between atoms: C_8  and  C_18 
REMARK    3  A    between atoms: C_21  and  C_23 
REMARK    4  A    between atoms: C_22  and  C_24 
REMARK    5  A    between atoms: C_27  and  C_29 
REMARK    6  A    between atoms: C_28  and  C_30 
REMARK    7  A    between atoms: C_31  and  C_33 
REMARK    8  A    between atoms: C_32  and  C_34 
REMARK    9  A    between atoms: C_37  and  C_39 
REMARK   10  A    between atoms: C_38  and  C_40 
ROOT
HETATM    1  C   UNL     1      19.356  -5.668  40.696  1.00  0.00     0.001 C 
HETATM    2  C   UNL     1      18.859  -5.909  41.921  1.00  0.00     0.001 C 
ENDROOT
BRANCH   1   3
HETATM    3  C   UNL     1      19.750  -6.725  39.786  1.00  0.00     0.007 C 
HETATM    4  C   UNL     1      19.310  -6.931  38.526  1.00  0.00    -0.062 C 
HETATM    5  C   UNL     1      18.288  -6.069  37.825  1.00  0.00     0.048 C 
BRANCH   4   6
HETATM    6  C   UNL     1      19.853  -8.071  37.780  1.00  0.00     0.007 C 
HETATM    7  C   UNL     1      20.399  -8.036  36.553  1.00  0.00     0.001 C 
BRANCH   7   8
HETATM    8  C   UNL     1      20.914  -9.220  35.893  1.00  0.00     0.007 C 
HETATM    9  C   UNL     1      22.181  -9.686  35.915  1.00  0.00    -0.062 C 
HETATM   10  C   UNL     1      23.325  -9.034  36.656  1.00  0.00     0.048 C 
BRANCH   9  11
HETATM   11  C   UNL     1      22.480 -10.912  35.171  1.00  0.00     0.007 C 
HETATM   12  C   UNL     1      21.609 -11.649  34.461  1.00  0.00     0.009 C 
BRANCH  12  13
HETATM   13  C   UNL     1      21.982 -12.875  33.759  1.00  0.00    -0.048 C 
HETATM   14  C   UNL     1      21.530 -14.192  34.427  1.00  0.00    -0.020 C 
HETATM   15  C   UNL     1      21.697 -15.398  33.461  1.00  0.00     0.014 C 
HETATM   16  C   UNL     1      22.376 -14.436  35.696  1.00  0.00     0.020 C 
HETATM   17  C   UNL     1      20.039 -14.163  34.837  1.00  0.00     0.020 C 
HETATM   18  C   UNL     1      23.027 -15.369  32.727  1.00  0.00     0.005 C 
HETATM   19  C   UNL     1      23.145 -14.100  31.893  1.00  0.00     0.034 C 
HETATM   20  C   UNL     1      22.684 -12.843  32.599  1.00  0.00    -0.077 C 
HETATM   21  C   UNL     1      23.073 -11.585  31.858  1.00  0.00     0.044 C 
ENDBRANCH  12  13
ENDBRANCH   9  11
ENDBRANCH   7   8
ENDBRANCH   4   6
ENDBRANCH   1   3
BRANCH   2  22
HETATM   22  C   UNL     1      18.465  -4.845  42.822  1.00  0.00     0.007 C 
HETATM   23  C   UNL     1      17.733  -4.952  43.952  1.00  0.00    -0.062 C 
HETATM   24  C   UNL     1      17.188  -6.246  44.503  1.00  0.00     0.048 C 
BRANCH  23  25
HETATM   25  C   UNL     1      17.445  -3.725  44.703  1.00  0.00     0.007 C 
HETATM   26  C   UNL     1      16.232  -3.204  44.955  1.00  0.00     0.001 C 
BRANCH  26  27
HETATM   27  C   UNL     1      16.056  -1.974  45.702  1.00  0.00     0.007 C 
HETATM   28  C   UNL     1      15.669  -1.838  46.988  1.00  0.00    -0.062 C 
HETATM   29  C   UNL     1      15.345  -2.986  47.914  1.00  0.00     0.048 C 
BRANCH  28  30
HETATM   30  C   UNL     1      15.549  -0.484  47.532  1.00  0.00     0.007 C 
HETATM   31  C   UNL     1      16.550   0.294  47.978  1.00  0.00     0.009 C 
BRANCH  31  32
HETATM   32  C   UNL     1      16.351   1.650  48.486  1.00  0.00    -0.048 C 
HETATM   33  C   UNL     1      16.802   2.783  47.539  1.00  0.00    -0.020 C 
HETATM   34  C   UNL     1      16.190   4.142  47.968  1.00  0.00     0.014 C 
HETATM   35  C   UNL     1      18.344   2.884  47.562  1.00  0.00     0.020 C 
HETATM   36  C   UNL     1      16.354   2.540  46.079  1.00  0.00     0.020 C 
HETATM   37  C   UNL     1      16.310   4.384  49.464  1.00  0.00     0.005 C 
HETATM   38  C   UNL     1      15.596   3.288  50.243  1.00  0.00     0.034 C 
HETATM   39  C   UNL     1      15.815   1.887  49.710  1.00  0.00    -0.077 C 
HETATM   40  C   UNL     1      15.388   0.820  50.692  1.00  0.00     0.044 C 
ENDBRANCH  31  32
ENDBRANCH  28  30
ENDBRANCH  26  27
ENDBRANCH  23  25
ENDBRANCH   2  22
TORSDOF 10
ENDMDL
MODEL 8
REMARK VINA RESULT:    -6.731      9.181     18.895
REMARK INTER + INTRA:         -12.077
REMARK INTER:                 -10.434
REMARK INTRA:                  -1.644
REMARK UNBOUND:                -1.412
REMARK  10 active torsions:
REMARK  status: ('A' for Active; 'I' for Inactive)
REMARK    1  A    between atoms: C_7  and  C_17 
REMARK    2  A    between atoms: C_8  and  C_18 
REMARK    3  A    between atoms: C_21  and  C_23 
REMARK    4  A    between atoms: C_22  and  C_24 
REMARK    5  A    between atoms: C_27  and  C_29 
REMARK    6  A    between atoms: C_28  and  C_30 
REMARK    7  A    between atoms: C_31  and  C_33 
REMARK    8  A    between atoms: C_32  and  C_34 
REMARK    9  A    between atoms: C_37  and  C_39 
REMARK   10  A    between atoms: C_38  and  C_40 
ROOT
HETATM    1  C   UNL     1      17.156  -3.469  45.761  1.00  0.00     0.001 C 
HETATM    2  C   UNL     1      16.131  -2.600  45.791  1.00  0.00     0.001 C 
ENDROOT
BRANCH   1   3
HETATM    3  C   UNL     1      16.978  -4.885  45.511  1.00  0.00     0.007 C 
HETATM    4  C   UNL     1      17.077  -5.529  44.329  1.00  0.00    -0.062 C 
HETATM    5  C   UNL     1      17.393  -4.859  43.013  1.00  0.00     0.048 C 
BRANCH   4   6
HETATM    6  C   UNL     1      16.860  -6.979  44.309  1.00  0.00     0.007 C 
HETATM    7  C   UNL     1      17.171  -7.847  45.287  1.00  0.00     0.001 C 
BRANCH   7   8
HETATM    8  C   UNL     1      16.916  -9.270  45.178  1.00  0.00     0.007 C 
HETATM    9  C   UNL     1      16.728 -10.149  46.186  1.00  0.00    -0.062 C 
HETATM   10  C   UNL     1      16.753  -9.794  47.653  1.00  0.00     0.048 C 
BRANCH   9  11
HETATM   11  C   UNL     1      16.481 -11.552  45.842  1.00  0.00     0.007 C 
HETATM   12  C   UNL     1      17.404 -12.519  45.712  1.00  0.00     0.009 C 
BRANCH  12  13
HETATM   13  C   UNL     1      17.077 -13.896  45.347  1.00  0.00    -0.048 C 
HETATM   14  C   UNL     1      17.107 -14.213  43.836  1.00  0.00    -0.020 C 
HETATM   15  C   UNL     1      17.057 -15.745  43.582  1.00  0.00     0.014 C 
HETATM   16  C   UNL     1      15.895 -13.543  43.152  1.00  0.00     0.020 C 
HETATM   17  C   UNL     1      18.396 -13.697  43.152  1.00  0.00     0.020 C 
HETATM   18  C   UNL     1      16.025 -16.440  44.454  1.00  0.00     0.005 C 
HETATM   19  C   UNL     1      16.352 -16.235  45.927  1.00  0.00     0.034 C 
HETATM   20  C   UNL     1      16.766 -14.824  46.286  1.00  0.00    -0.077 C 
HETATM   21  C   UNL     1      16.808 -14.592  47.778  1.00  0.00     0.044 C 
ENDBRANCH  12  13
ENDBRANCH   9  11
ENDBRANCH   7   8
ENDBRANCH   4   6
ENDBRANCH   1   3
BRANCH   2  22
HETATM   22  C   UNL     1      16.318  -1.185  46.038  1.00  0.00     0.007 C 
HETATM   23  C   UNL     1      15.443  -0.184  45.802  1.00  0.00    -0.062 C 
HETATM   24  C   UNL     1      14.060  -0.371  45.230  1.00  0.00     0.048 C 
BRANCH  23  25
HETATM   25  C   UNL     1      15.861   1.185  46.123  1.00  0.00     0.007 C 
HETATM   26  C   UNL     1      16.989   1.553  46.755  1.00  0.00     0.001 C 
BRANCH  26  27
HETATM   27  C   UNL     1      17.304   2.941  47.035  1.00  0.00     0.007 C 
HETATM   28  C   UNL     1      16.961   3.660  48.124  1.00  0.00    -0.062 C 
HETATM   29  C   UNL     1      16.164   3.128  49.290  1.00  0.00     0.048 C 
BRANCH  28  30
HETATM   30  C   UNL     1      17.384   5.060  48.186  1.00  0.00     0.007 C 
HETATM   31  C   UNL     1      18.170   5.621  49.121  1.00  0.00     0.009 C 
BRANCH  31  32
HETATM   32  C   UNL     1      18.570   7.027  49.100  1.00  0.00    -0.048 C 
HETATM   33  C   UNL     1      19.966   7.308  48.506  1.00  0.00    -0.020 C 
HETATM   34  C   UNL     1      20.128   8.809  48.151  1.00  0.00     0.014 C 
HETATM   35  C   UNL     1      21.049   6.903  49.532  1.00  0.00     0.020 C 
HETATM   36  C   UNL     1      20.218   6.517  47.199  1.00  0.00     0.020 C 
HETATM   37  C   UNL     1      19.639   9.722  49.263  1.00  0.00     0.005 C 
HETATM   38  C   UNL     1      18.166   9.470  49.555  1.00  0.00     0.034 C 
HETATM   39  C   UNL     1      17.766   8.009  49.580  1.00  0.00    -0.077 C 
HETATM   40  C   UNL     1      16.407   7.792  50.203  1.00  0.00     0.044 C 
ENDBRANCH  31  32
ENDBRANCH  28  30
ENDBRANCH  26  27
ENDBRANCH  23  25
ENDBRANCH   2  22
TORSDOF 10
ENDMDL
MODEL 9
REMARK VINA RESULT:    -6.555      1.943     18.008
REMARK INTER + INTRA:         -11.799
REMARK INTER:                  -9.992
REMARK INTRA:                  -1.807
REMARK UNBOUND:                -1.412
REMARK  10 active torsions:
REMARK  status: ('A' for Active; 'I' for Inactive)
REMARK    1  A    between atoms: C_7  and  C_17 
REMARK    2  A    between atoms: C_8  and  C_18 
REMARK    3  A    between atoms: C_21  and  C_23 
REMARK    4  A    between atoms: C_22  and  C_24 
REMARK    5  A    between atoms: C_27  and  C_29 
REMARK    6  A    between atoms: C_28  and  C_30 
REMARK    7  A    between atoms: C_31  and  C_33 
REMARK    8  A    between atoms: C_32  and  C_34 
REMARK    9  A    between atoms: C_37  and  C_39 
REMARK   10  A    between atoms: C_38  and  C_40 
ROOT
HETATM    1  C   UNL     1      19.637  -8.445  39.102  1.00  0.00     0.001 C 
HETATM    2  C   UNL     1      18.370  -8.314  39.529  1.00  0.00     0.001 C 
ENDROOT
BRANCH   1   3
HETATM    3  C   UNL     1      20.037  -9.433  38.120  1.00  0.00     0.007 C 
HETATM    4  C   UNL     1      20.036  -9.303  36.776  1.00  0.00    -0.062 C 
HETATM    5  C   UNL     1      19.596  -8.063  36.037  1.00  0.00     0.048 C 
BRANCH   4   6
HETATM    6  C   UNL     1      20.490 -10.441  35.969  1.00  0.00     0.007 C 
HETATM    7  C   UNL     1      20.527 -11.728  36.353  1.00  0.00     0.001 C 
BRANCH   7   8
HETATM    8  C   UNL     1      20.990 -12.790  35.481  1.00  0.00     0.007 C 
HETATM    9  C   UNL     1      20.239 -13.699  34.823  1.00  0.00    -0.062 C 
HETATM   10  C   UNL     1      18.732 -13.773  34.881  1.00  0.00     0.048 C 
BRANCH   9  11
HETATM   11  C   UNL     1      20.925 -14.688  33.988  1.00  0.00     0.007 C 
HETATM   12  C   UNL     1      22.247 -14.924  33.950  1.00  0.00     0.009 C 
BRANCH  12  13
HETATM   13  C   UNL     1      22.859 -15.921  33.073  1.00  0.00    -0.048 C 
HETATM   14  C   UNL     1      23.421 -15.382  31.739  1.00  0.00    -0.020 C 
HETATM   15  C   UNL     1      24.312 -16.444  31.036  1.00  0.00     0.014 C 
HETATM   16  C   UNL     1      22.248 -15.005  30.808  1.00  0.00     0.020 C 
HETATM   17  C   UNL     1      24.306 -14.129  31.936  1.00  0.00     0.020 C 
HETATM   18  C   UNL     1      23.688 -17.829  31.061  1.00  0.00     0.005 C 
HETATM   19  C   UNL     1      23.479 -18.290  32.497  1.00  0.00     0.034 C 
HETATM   20  C   UNL     1      22.918 -17.230  33.420  1.00  0.00    -0.077 C 
HETATM   21  C   UNL     1      22.465 -17.795  34.747  1.00  0.00     0.044 C 
ENDBRANCH  12  13
ENDBRANCH   9  11
ENDBRANCH   7   8
ENDBRANCH   4   6
ENDBRANCH   1   3
BRANCH   2  22
HETATM   22  C   UNL     1      17.979  -7.320  40.508  1.00  0.00     0.007 C 
HETATM   23  C   UNL     1      16.875  -6.543  40.498  1.00  0.00    -0.062 C 
HETATM   24  C   UNL     1      15.807  -6.583  39.433  1.00  0.00     0.048 C 
BRANCH  23  25
HETATM   25  C   UNL     1      16.694  -5.591  41.599  1.00  0.00     0.007 C 
HETATM   26  C   UNL     1      15.999  -5.795  42.732  1.00  0.00     0.001 C 
BRANCH  26  27
HETATM   27  C   UNL     1      15.872  -4.779  43.758  1.00  0.00     0.007 C 
HETATM   28  C   UNL     1      16.557  -4.688  44.918  1.00  0.00    -0.062 C 
HETATM   29  C   UNL     1      17.622  -5.660  45.366  1.00  0.00     0.048 C 
BRANCH  28  30
HETATM   30  C   UNL     1      16.251  -3.571  45.813  1.00  0.00     0.007 C 
HETATM   31  C   UNL     1      16.902  -2.398  45.886  1.00  0.00     0.009 C 
BRANCH  31  32
HETATM   32  C   UNL     1      16.518  -1.319  46.794  1.00  0.00    -0.048 C 
HETATM   33  C   UNL     1      17.380  -1.190  48.068  1.00  0.00    -0.020 C 
HETATM   34  C   UNL     1      17.173   0.192  48.742  1.00  0.00     0.014 C 
HETATM   35  C   UNL     1      16.995  -2.309  49.061  1.00  0.00     0.020 C 
HETATM   36  C   UNL     1      18.893  -1.309  47.767  1.00  0.00     0.020 C 
HETATM   37  C   UNL     1      15.704   0.570  48.844  1.00  0.00     0.005 C 
HETATM   38  C   UNL     1      15.069   0.629  47.461  1.00  0.00     0.034 C 
HETATM   39  C   UNL     1      15.470  -0.498  46.532  1.00  0.00    -0.077 C 
HETATM   40  C   UNL     1      14.571  -0.597  45.321  1.00  0.00     0.044 C 
ENDBRANCH  31  32
ENDBRANCH  28  30
ENDBRANCH  26  27
ENDBRANCH  23  25
ENDBRANCH   2  22
TORSDOF 10
ENDMDL
MODEL 10
REMARK VINA RESULT:    -6.536      7.786     11.235
REMARK INTER + INTRA:         -11.769
REMARK INTER:                 -10.349
REMARK INTRA:                  -1.420
REMARK UNBOUND:                -1.412
REMARK  10 active torsions:
REMARK  status: ('A' for Active; 'I' for Inactive)
REMARK    1  A    between atoms: C_7  and  C_17 
REMARK    2  A    between atoms: C_8  and  C_18 
REMARK    3  A    between atoms: C_21  and  C_23 
REMARK    4  A    between atoms: C_22  and  C_24 
REMARK    5  A    between atoms: C_27  and  C_29 
REMARK    6  A    between atoms: C_28  and  C_30 
REMARK    7  A    between atoms: C_31  and  C_33 
REMARK    8  A    between atoms: C_32  and  C_34 
REMARK    9  A    between atoms: C_37  and  C_39 
REMARK   10  A    between atoms: C_38  and  C_40 
ROOT
HETATM    1  C   UNL     1      16.980  -3.553  45.914  1.00  0.00     0.001 C 
HETATM    2  C   UNL     1      16.490  -4.043  44.762  1.00  0.00     0.001 C 
ENDROOT
BRANCH   1   3
HETATM    3  C   UNL     1      16.828  -2.167  46.306  1.00  0.00     0.007 C 
HETATM    4  C   UNL     1      15.791  -1.610  46.968  1.00  0.00    -0.062 C 
HETATM    5  C   UNL     1      14.563  -2.361  47.424  1.00  0.00     0.048 C 
BRANCH   4   6
HETATM    6  C   UNL     1      15.850  -0.175  47.267  1.00  0.00     0.007 C 
HETATM    7  C   UNL     1      16.771   0.447  48.022  1.00  0.00     0.001 C 
BRANCH   7   8
HETATM    8  C   UNL     1      16.750   1.877  48.260  1.00  0.00     0.007 C 
HETATM    9  C   UNL     1      16.877   2.863  47.347  1.00  0.00    -0.062 C 
HETATM   10  C   UNL     1      17.070   2.644  45.865  1.00  0.00     0.048 C 
BRANCH   9  11
HETATM   11  C   UNL     1      16.823   4.250  47.816  1.00  0.00     0.007 C 
HETATM   12  C   UNL     1      17.038   4.680  49.071  1.00  0.00     0.009 C 
BRANCH  12  13
HETATM   13  C   UNL     1      16.948   6.084  49.464  1.00  0.00    -0.048 C 
HETATM   14  C   UNL     1      18.293   6.834  49.580  1.00  0.00    -0.020 C 
HETATM   15  C   UNL     1      18.073   8.368  49.692  1.00  0.00     0.014 C 
HETATM   16  C   UNL     1      19.048   6.335  50.832  1.00  0.00     0.020 C 
HETATM   17  C   UNL     1      19.200   6.611  48.347  1.00  0.00     0.020 C 
HETATM   18  C   UNL     1      16.953   8.721  50.657  1.00  0.00     0.005 C 
HETATM   19  C   UNL     1      15.640   8.107  50.192  1.00  0.00     0.034 C 
HETATM   20  C   UNL     1      15.753   6.676  49.712  1.00  0.00    -0.077 C 
HETATM   21  C   UNL     1      14.407   6.016  49.528  1.00  0.00     0.044 C 
ENDBRANCH  12  13
ENDBRANCH   9  11
ENDBRANCH   7   8
ENDBRANCH   4   6
ENDBRANCH   1   3
BRANCH   2  22
HETATM   22  C   UNL     1      16.645  -5.432  44.380  1.00  0.00     0.007 C 
HETATM   23  C   UNL     1      16.373  -5.992  43.182  1.00  0.00    -0.062 C 
HETATM   24  C   UNL     1      15.853  -5.240  41.982  1.00  0.00     0.048 C 
BRANCH  23  25
HETATM   25  C   UNL     1      16.597  -7.434  43.029  1.00  0.00     0.007 C 
HETATM   26  C   UNL     1      17.593  -8.153  43.574  1.00  0.00     0.001 C 
BRANCH  26  27
HETATM   27  C   UNL     1      17.732  -9.579  43.351  1.00  0.00     0.007 C 
HETATM   28  C   UNL     1      17.168 -10.582  44.056  1.00  0.00    -0.062 C 
HETATM   29  C   UNL     1      16.254 -10.392  45.241  1.00  0.00     0.048 C 
BRANCH  28  30
HETATM   30  C   UNL     1      17.461 -11.958  43.651  1.00  0.00     0.007 C 
HETATM   31  C   UNL     1      18.533 -12.689  44.003  1.00  0.00     0.009 C 
BRANCH  31  32
HETATM   32  C   UNL     1      18.743 -14.070  43.575  1.00  0.00    -0.048 C 
HETATM   33  C   UNL     1      18.186 -15.149  44.528  1.00  0.00    -0.020 C 
HETATM   34  C   UNL     1      18.086 -16.523  43.815  1.00  0.00     0.014 C 
HETATM   35  C   UNL     1      19.117 -15.275  45.756  1.00  0.00     0.020 C 
HETATM   36  C   UNL     1      16.763 -14.810  45.031  1.00  0.00     0.020 C 
HETATM   37  C   UNL     1      19.342 -16.858  43.027  1.00  0.00     0.005 C 
HETATM   38  C   UNL     1      19.605 -15.802  41.963  1.00  0.00     0.034 C 
HETATM   39  C   UNL     1      19.390 -14.374  42.422  1.00  0.00    -0.077 C 
HETATM   40  C   UNL     1      19.985 -13.364  41.468  1.00  0.00     0.044 C 
ENDBRANCH  31  32
ENDBRANCH  28  30
ENDBRANCH  26  27
ENDBRANCH  23  25
ENDBRANCH   2  22
TORSDOF 10
ENDMDL
