REMARK  6 active torsions:
REMARK  status: ('A' for Active; 'I' for Inactive)
REMARK    1  A    between atoms: C_2  and  O_20 
REMARK    2  A    between atoms: C_4  and  O_21 
REMARK    3  A    between atoms: C_8  and  C_11 
REMARK    4  A    between atoms: C_9  and  O_19 
REMARK    5  A    between atoms: C_12  and  O_17 
REMARK    6  A    between atoms: C_14  and  O_22 
ROOT
HETATM    1  C   UNL     1      -4.817   0.707   1.259  1.00  0.00     0.075 A 
HETATM    2  C   UNL     1      -6.076   0.121   1.163  1.00  0.00     0.071 A 
HETATM    3  C   UNL     1      -6.263  -1.064   0.455  1.00  0.00     0.074 A 
HETATM    4  C   UNL     1      -5.176  -1.673  -0.164  1.00  0.00     0.085 A 
HETATM    5  C   UNL     1      -3.907  -1.095  -0.072  1.00  0.00     0.084 A 
HETATM    6  C   UNL     1      -3.730   0.092   0.636  1.00  0.00     0.096 A 
HETATM    7  O   UNL     1      -2.513   0.715   0.756  1.00  0.00    -0.306 OA
HETATM    8  C   UNL     1      -1.395   0.123   0.179  1.00  0.00     0.126 A 
HETATM    9  C   UNL     1      -1.434  -1.016  -0.537  1.00  0.00     0.152 A 
HETATM   10  C   UNL     1      -2.736  -1.702  -0.707  1.00  0.00     0.223 A 
HETATM   11  O   UNL     1      -2.813  -2.740  -1.360  1.00  0.00    -0.284 OA
ENDROOT
BRANCH   8  12
HETATM   12  C   UNL     1      -0.153   0.896   0.409  1.00  0.00     0.034 A 
HETATM   13  C   UNL     1      -0.085   2.288   0.206  1.00  0.00     0.081 A 
HETATM   14  C   UNL     1       1.090   3.003   0.444  1.00  0.00     0.074 A 
HETATM   15  C   UNL     1       2.215   2.330   0.904  1.00  0.00     0.068 A 
HETATM   16  C   UNL     1       2.179   0.961   1.129  1.00  0.00     0.037 A 
HETATM   17  C   UNL     1       1.000   0.249   0.886  1.00  0.00     0.020 A 
BRANCH  13  18
HETATM   18  O   UNL     1      -1.147   3.032  -0.240  1.00  0.00    -0.360 OA
HETATM   19  H   UNL     1      -1.923   2.452  -0.305  1.00  0.00     0.217 HD
ENDBRANCH  13  18
BRANCH  15  20
HETATM   20  O   UNL     1       3.384   2.985   1.153  1.00  0.00    -0.361 OA
HETATM   21  H   UNL     1       3.265   3.924   0.932  1.00  0.00     0.217 HD
ENDBRANCH  15  20
ENDBRANCH   8  12
BRANCH   9  22
HETATM   22  O   UNL     1      -0.334  -1.590  -1.145  1.00  0.00    -0.355 OA
HETATM   23  H   UNL     1      -0.674  -2.386  -1.607  1.00  0.00     0.218 HD
ENDBRANCH   9  22
BRANCH   2  24
HETATM   24  O   UNL     1      -7.167   0.683   1.755  1.00  0.00    -0.361 OA
HETATM   25  H   UNL     1      -6.901   1.489   2.228  1.00  0.00     0.217 HD
ENDBRANCH   2  24
BRANCH   4  26
HETATM   26  O   UNL     1      -5.420  -2.834  -0.845  1.00  0.00    -0.360 OA
HETATM   27  H   UNL     1      -4.576  -3.156  -1.233  1.00  0.00     0.217 HD
ENDBRANCH   4  26
TORSDOF 6
