MODEL 1
REMARK VINA RESULT:    -6.529      0.000      0.000
REMARK INTER + INTRA:          -8.244
REMARK INTER:                  -7.865
REMARK INTRA:                  -0.379
REMARK UNBOUND:                -0.379
REMARK  6 active torsions:
REMARK  status: ('A' for Active; 'I' for Inactive)
REMARK    1  A    between atoms: C_2  and  O_20 
REMARK    2  A    between atoms: C_4  and  O_21 
REMARK    3  A    between atoms: C_8  and  C_11 
REMARK    4  A    between atoms: C_9  and  O_19 
REMARK    5  A    between atoms: C_12  and  O_17 
REMARK    6  A    between atoms: C_14  and  O_22 
ROOT
HETATM    1  C   UNL     1      17.579  -7.641  42.252  1.00  0.00     0.075 A 
HETATM    2  C   UNL     1      16.761  -7.167  43.274  1.00  0.00     0.071 A 
HETATM    3  C   UNL     1      15.995  -6.016  43.102  1.00  0.00     0.074 A 
HETATM    4  C   UNL     1      16.044  -5.332  41.892  1.00  0.00     0.085 A 
HETATM    5  C   UNL     1      16.860  -5.800  40.859  1.00  0.00     0.084 A 
HETATM    6  C   UNL     1      17.625  -6.950  41.040  1.00  0.00     0.096 A 
HETATM    7  O   UNL     1      18.453  -7.457  40.069  1.00  0.00    -0.306 OA
HETATM    8  C   UNL     1      18.508  -6.821  38.834  1.00  0.00     0.126 A 
HETATM    9  C   UNL     1      17.826  -5.699  38.536  1.00  0.00     0.152 A 
HETATM   10  C   UNL     1      16.941  -5.112  39.569  1.00  0.00     0.223 A 
HETATM   11  O   UNL     1      16.308  -4.085  39.337  1.00  0.00    -0.284 OA
ENDROOT
BRANCH   8  12
HETATM   12  C   UNL     1      19.424  -7.491  37.883  1.00  0.00     0.034 A 
HETATM   13  C   UNL     1      18.954  -8.294  36.825  1.00  0.00     0.081 A 
HETATM   14  C   UNL     1      19.832  -8.905  35.928  1.00  0.00     0.074 A 
HETATM   15  C   UNL     1      21.200  -8.707  36.073  1.00  0.00     0.068 A 
HETATM   16  C   UNL     1      21.696  -7.911  37.095  1.00  0.00     0.037 A 
HETATM   17  C   UNL     1      20.812  -7.303  37.993  1.00  0.00     0.020 A 
BRANCH  13  18
HETATM   18  O   UNL     1      17.623  -8.537  36.604  1.00  0.00    -0.360 OA
HETATM   19  H   UNL     1      17.133  -7.709  36.738  1.00  0.00     0.217 HD
ENDBRANCH  13  18
BRANCH  15  20
HETATM   20  O   UNL     1      22.096  -9.281  35.221  1.00  0.00    -0.361 OA
HETATM   21  H   UNL     1      22.210  -8.695  34.454  1.00  0.00     0.217 HD
ENDBRANCH  15  20
ENDBRANCH   8  12
BRANCH   9  22
HETATM   22  O   UNL     1      17.904  -5.041  37.324  1.00  0.00    -0.355 OA
HETATM   23  H   UNL     1      17.496  -5.646  36.668  1.00  0.00     0.218 HD
ENDBRANCH   9  22
BRANCH   2  24
HETATM   24  O   UNL     1      16.682  -7.807  44.474  1.00  0.00    -0.361 OA
HETATM   25  H   UNL     1      17.128  -8.668  44.413  1.00  0.00     0.217 HD
ENDBRANCH   2  24
BRANCH   4  26
HETATM   26  O   UNL     1      15.270  -4.209  41.782  1.00  0.00    -0.360 OA
HETATM   27  H   UNL     1      15.849  -3.448  41.552  1.00  0.00     0.217 HD
ENDBRANCH   4  26
TORSDOF 6
ENDMDL
