REMARK  6 active torsions:
REMARK  status: ('A' for Active; 'I' for Inactive)
REMARK    1  A    between atoms: C_2  and  O_19 
REMARK    2  A    between atoms: C_4  and  O_20 
REMARK    3  A    between atoms: C_8  and  C_11 
REMARK    4  A    between atoms: C_9  and  O_18 
REMARK    5  A    between atoms: C_13  and  O_26 
REMARK    6  A    between atoms: C_14  and  O_21 
ROOT
HETATM    1  C   UNL     1      -4.784   0.730   1.245  1.00  0.00     0.075 A 
HETATM    2  C   UNL     1      -6.055   0.169   1.140  1.00  0.00     0.071 A 
HETATM    3  C   UNL     1      -6.261  -1.015   0.437  1.00  0.00     0.074 A 
HETATM    4  C   UNL     1      -5.180  -1.649  -0.169  1.00  0.00     0.085 A 
HETATM    5  C   UNL     1      -3.900  -1.097  -0.069  1.00  0.00     0.084 A 
HETATM    6  C   UNL     1      -3.704   0.089   0.635  1.00  0.00     0.096 A 
HETATM    7  O   UNL     1      -2.475   0.684   0.767  1.00  0.00    -0.306 OA
HETATM    8  C   UNL     1      -1.366   0.071   0.195  1.00  0.00     0.124 A 
HETATM    9  C   UNL     1      -1.422  -1.072  -0.514  1.00  0.00     0.152 A 
HETATM   10  C   UNL     1      -2.736  -1.732  -0.690  1.00  0.00     0.223 A 
HETATM   11  O   UNL     1      -2.829  -2.773  -1.335  1.00  0.00    -0.284 OA
ENDROOT
BRANCH   8  12
HETATM   12  C   UNL     1      -0.115   0.820   0.423  1.00  0.00     0.015 A 
HETATM   13  C   UNL     1      -0.129   2.212   0.266  1.00  0.00     0.027 A 
HETATM   14  C   UNL     1       1.023   2.954   0.502  1.00  0.00     0.111 A 
HETATM   15  C   UNL     1       2.194   2.324   0.904  1.00  0.00     0.099 A 
HETATM   16  C   UNL     1       2.231   0.949   1.077  1.00  0.00     0.040 A 
HETATM   17  C   UNL     1       1.075   0.197   0.839  1.00  0.00     0.018 A 
BRANCH  14  18
HETATM   18  O   UNL     1       1.037   4.313   0.347  1.00  0.00    -0.357 OA
HETATM   19  H   UNL     1       0.149   4.580   0.046  1.00  0.00     0.217 HD
ENDBRANCH  14  18
BRANCH  15  20
HETATM   20  O   UNL     1       3.321   3.056   1.137  1.00  0.00    -0.358 OA
HETATM   21  H   UNL     1       3.061   3.980   0.950  1.00  0.00     0.217 HD
ENDBRANCH  15  20
ENDBRANCH   8  12
BRANCH   9  22
HETATM   22  O   UNL     1      -0.331  -1.671  -1.114  1.00  0.00    -0.355 OA
HETATM   23  H   UNL     1      -0.687  -2.462  -1.572  1.00  0.00     0.218 HD
ENDBRANCH   9  22
BRANCH   2  24
HETATM   24  O   UNL     1      -7.139   0.758   1.720  1.00  0.00    -0.361 OA
HETATM   25  H   UNL     1      -6.859   1.561   2.188  1.00  0.00     0.217 HD
ENDBRANCH   2  24
BRANCH   4  26
HETATM   26  O   UNL     1      -5.442  -2.809  -0.847  1.00  0.00    -0.360 OA
HETATM   27  H   UNL     1      -4.601  -3.149  -1.225  1.00  0.00     0.217 HD
ENDBRANCH   4  26
TORSDOF 6
