MODEL 1
REMARK VINA RESULT:    -6.389      0.000      0.000
REMARK INTER + INTRA:          -7.966
REMARK INTER:                  -7.696
REMARK INTRA:                  -0.270
REMARK UNBOUND:                -0.270
REMARK  6 active torsions:
REMARK  status: ('A' for Active; 'I' for Inactive)
REMARK    1  A    between atoms: C_2  and  O_19 
REMARK    2  A    between atoms: C_4  and  O_20 
REMARK    3  A    between atoms: C_8  and  C_11 
REMARK    4  A    between atoms: C_9  and  O_18 
REMARK    5  A    between atoms: C_13  and  O_26 
REMARK    6  A    between atoms: C_14  and  O_21 
ROOT
HETATM    1  C   UNL     1      17.804  -7.548  37.434  1.00  0.00     0.075 A 
HETATM    2  C   UNL     1      17.377  -6.570  38.329  1.00  0.00     0.071 A 
HETATM    3  C   UNL     1      18.293  -5.816  39.059  1.00  0.00     0.074 A 
HETATM    4  C   UNL     1      19.656  -6.044  38.890  1.00  0.00     0.085 A 
HETATM    5  C   UNL     1      20.096  -7.021  37.994  1.00  0.00     0.084 A 
HETATM    6  C   UNL     1      19.172  -7.771  37.269  1.00  0.00     0.096 A 
HETATM    7  O   UNL     1      19.538  -8.747  36.378  1.00  0.00    -0.306 OA
HETATM    8  C   UNL     1      20.890  -8.991  36.164  1.00  0.00     0.124 A 
HETATM    9  C   UNL     1      21.881  -8.340  36.804  1.00  0.00     0.152 A 
HETATM   10  C   UNL     1      21.520  -7.292  37.786  1.00  0.00     0.223 A 
HETATM   11  O   UNL     1      22.394  -6.680  38.394  1.00  0.00    -0.284 OA
ENDROOT
BRANCH   8  12
HETATM   12  C   UNL     1      21.132 -10.061  35.177  1.00  0.00     0.015 A 
HETATM   13  C   UNL     1      21.615  -9.707  33.911  1.00  0.00     0.027 A 
HETATM   14  C   UNL     1      21.884 -10.691  32.965  1.00  0.00     0.111 A 
HETATM   15  C   UNL     1      21.685 -12.032  33.271  1.00  0.00     0.099 A 
HETATM   16  C   UNL     1      21.218 -12.408  34.521  1.00  0.00     0.040 A 
HETATM   17  C   UNL     1      20.944 -11.422  35.475  1.00  0.00     0.018 A 
BRANCH  14  18
HETATM   18  O   UNL     1      22.347 -10.371  31.719  1.00  0.00    -0.357 OA
HETATM   19  H   UNL     1      22.793  -9.507  31.788  1.00  0.00     0.217 HD
ENDBRANCH  14  18
BRANCH  15  20
HETATM   20  O   UNL     1      21.952 -12.993  32.341  1.00  0.00    -0.358 OA
HETATM   21  H   UNL     1      22.849 -12.782  32.015  1.00  0.00     0.217 HD
ENDBRANCH  15  20
ENDBRANCH   8  12
BRANCH   9  22
HETATM   22  O   UNL     1      23.226  -8.598  36.623  1.00  0.00    -0.355 OA
HETATM   23  H   UNL     1      23.267  -9.307  35.947  1.00  0.00     0.218 HD
ENDBRANCH   9  22
BRANCH   2  24
HETATM   24  O   UNL     1      16.052  -6.315  38.522  1.00  0.00    -0.361 OA
HETATM   25  H   UNL     1      15.591  -7.143  38.734  1.00  0.00     0.217 HD
ENDBRANCH   2  24
BRANCH   4  26
HETATM   26  O   UNL     1      20.510  -5.274  39.634  1.00  0.00    -0.360 OA
HETATM   27  H   UNL     1      21.370  -5.743  39.710  1.00  0.00     0.217 HD
ENDBRANCH   4  26
TORSDOF 6
ENDMDL
