REMARK  10 active torsions:
REMARK  status: ('A' for Active; 'I' for Inactive)
REMARK    1  A    between atoms: C_7  and  C_17 
REMARK    2  A    between atoms: C_8  and  C_18 
REMARK    3  A    between atoms: C_21  and  C_23 
REMARK    4  A    between atoms: C_22  and  C_24 
REMARK    5  A    between atoms: C_27  and  C_29 
REMARK    6  A    between atoms: C_28  and  C_30 
REMARK    7  A    between atoms: C_31  and  C_33 
REMARK    8  A    between atoms: C_32  and  C_34 
REMARK    9  A    between atoms: C_37  and  C_39 
REMARK   10  A    between atoms: C_38  and  C_40 
ROOT
HETATM    1  C   UNL     1      -0.475  -0.379   0.225  1.00  0.00     0.001 C 
HETATM    2  C   UNL     1       0.463   0.488  -0.192  1.00  0.00     0.001 C 
ENDROOT
BRANCH   1   3
HETATM    3  C   UNL     1      -1.895  -0.119   0.102  1.00  0.00     0.007 C 
HETATM    4  C   UNL     1      -2.913  -0.916   0.492  1.00  0.00    -0.062 C 
HETATM    5  C   UNL     1      -2.741  -2.269   1.140  1.00  0.00     0.048 C 
BRANCH   4   6
HETATM    6  C   UNL     1      -4.285  -0.446   0.272  1.00  0.00     0.007 C 
HETATM    7  C   UNL     1      -5.414  -1.078   0.634  1.00  0.00     0.001 C 
BRANCH   7   8
HETATM    8  C   UNL     1      -6.732  -0.532   0.376  1.00  0.00     0.007 C 
HETATM    9  C   UNL     1      -7.923  -1.058   0.734  1.00  0.00    -0.062 C 
HETATM   10  C   UNL     1      -8.099  -2.352   1.492  1.00  0.00     0.048 C 
BRANCH   9  11
HETATM   11  C   UNL     1      -9.139  -0.328   0.367  1.00  0.00     0.007 C 
HETATM   12  C   UNL     1     -10.401  -0.665   0.683  1.00  0.00     0.009 C 
BRANCH  12  13
HETATM   13  C   UNL     1     -11.567   0.109   0.262  1.00  0.00    -0.048 C 
HETATM   14  C   UNL     1     -12.504  -0.589  -0.748  1.00  0.00    -0.020 C 
HETATM   15  C   UNL     1     -13.850   0.175  -0.886  1.00  0.00     0.014 C 
HETATM   16  C   UNL     1     -11.810  -0.651  -2.127  1.00  0.00     0.020 C 
HETATM   17  C   UNL     1     -12.861  -2.032  -0.320  1.00  0.00     0.020 C 
HETATM   18  C   UNL     1     -13.652   1.678  -0.990  1.00  0.00     0.005 C 
HETATM   19  C   UNL     1     -12.955   2.208   0.256  1.00  0.00     0.034 C 
HETATM   20  C   UNL     1     -11.796   1.360   0.733  1.00  0.00    -0.077 C 
HETATM   21  C   UNL     1     -10.963   2.053   1.786  1.00  0.00     0.044 C 
ENDBRANCH  12  13
ENDBRANCH   9  11
ENDBRANCH   7   8
ENDBRANCH   4   6
ENDBRANCH   1   3
BRANCH   2  22
HETATM   22  C   UNL     1       1.881   0.218  -0.068  1.00  0.00     0.007 C 
HETATM   23  C   UNL     1       2.907   1.008  -0.451  1.00  0.00    -0.062 C 
HETATM   24  C   UNL     1       2.752   2.367  -1.087  1.00  0.00     0.048 C 
BRANCH  23  25
HETATM   25  C   UNL     1       4.272   0.516  -0.235  1.00  0.00     0.007 C 
HETATM   26  C   UNL     1       5.413   1.132  -0.589  1.00  0.00     0.001 C 
BRANCH  26  27
HETATM   27  C   UNL     1       6.718   0.552  -0.338  1.00  0.00     0.007 C 
HETATM   28  C   UNL     1       7.923   1.053  -0.683  1.00  0.00    -0.062 C 
HETATM   29  C   UNL     1       8.135   2.357  -1.413  1.00  0.00     0.048 C 
BRANCH  28  30
HETATM   30  C   UNL     1       9.116   0.281  -0.331  1.00  0.00     0.007 C 
HETATM   31  C   UNL     1      10.389   0.585  -0.637  1.00  0.00     0.009 C 
BRANCH  31  32
HETATM   32  C   UNL     1      11.532  -0.228  -0.227  1.00  0.00    -0.048 C 
HETATM   33  C   UNL     1      12.502   0.449   0.765  1.00  0.00    -0.020 C 
HETATM   34  C   UNL     1      13.423  -0.598   1.445  1.00  0.00     0.014 C 
HETATM   35  C   UNL     1      13.369   1.481   0.008  1.00  0.00     0.020 C 
HETATM   36  C   UNL     1      11.757   1.185   1.904  1.00  0.00     0.020 C 
HETATM   37  C   UNL     1      14.009  -1.585   0.449  1.00  0.00     0.005 C 
HETATM   38  C   UNL     1      12.901  -2.341  -0.272  1.00  0.00     0.034 C 
HETATM   39  C   UNL     1      11.725  -1.486  -0.697  1.00  0.00    -0.077 C 
HETATM   40  C   UNL     1      10.830  -2.187  -1.693  1.00  0.00     0.044 C 
ENDBRANCH  31  32
ENDBRANCH  28  30
ENDBRANCH  26  27
ENDBRANCH  23  25
ENDBRANCH   2  22
TORSDOF 10
