MODEL 1
REMARK VINA RESULT:    -6.376      0.000      0.000
REMARK INTER + INTRA:          -7.953
REMARK INTER:                  -7.681
REMARK INTRA:                  -0.273
REMARK UNBOUND:                -0.273
REMARK  6 active torsions:
REMARK  status: ('A' for Active; 'I' for Inactive)
REMARK    1  A    between atoms: C_2  and  O_19 
REMARK    2  A    between atoms: C_4  and  O_20 
REMARK    3  A    between atoms: C_8  and  C_11 
REMARK    4  A    between atoms: C_9  and  O_18 
REMARK    5  A    between atoms: C_13  and  O_26 
REMARK    6  A    between atoms: C_14  and  O_21 
ROOT
HETATM    1  C   UNL     1      17.805  -7.515  37.446  1.00  0.00     0.075 A 
HETATM    2  C   UNL     1      17.384  -6.537  38.344  1.00  0.00     0.071 A 
HETATM    3  C   UNL     1      18.305  -5.794  39.080  1.00  0.00     0.074 A 
HETATM    4  C   UNL     1      19.666  -6.032  38.914  1.00  0.00     0.085 A 
HETATM    5  C   UNL     1      20.100  -7.010  38.014  1.00  0.00     0.084 A 
HETATM    6  C   UNL     1      19.172  -7.749  37.284  1.00  0.00     0.096 A 
HETATM    7  O   UNL     1      19.533  -8.724  36.390  1.00  0.00    -0.306 OA
HETATM    8  C   UNL     1      20.883  -8.978  36.179  1.00  0.00     0.124 A 
HETATM    9  C   UNL     1      21.877  -8.338  36.823  1.00  0.00     0.152 A 
HETATM   10  C   UNL     1      21.522  -7.291  37.809  1.00  0.00     0.223 A 
HETATM   11  O   UNL     1      22.400  -6.689  38.421  1.00  0.00    -0.284 OA
ENDROOT
BRANCH   8  12
HETATM   12  C   UNL     1      21.119 -10.046  35.188  1.00  0.00     0.015 A 
HETATM   13  C   UNL     1      21.606  -9.691  33.923  1.00  0.00     0.027 A 
HETATM   14  C   UNL     1      21.869 -10.673  32.974  1.00  0.00     0.111 A 
HETATM   15  C   UNL     1      21.660 -12.013  33.274  1.00  0.00     0.099 A 
HETATM   16  C   UNL     1      21.189 -12.391  34.522  1.00  0.00     0.040 A 
HETATM   17  C   UNL     1      20.921 -11.407  35.480  1.00  0.00     0.018 A 
BRANCH  14  18
HETATM   18  O   UNL     1      22.336 -10.351  31.730  1.00  0.00    -0.357 OA
HETATM   19  H   UNL     1      21.761  -9.647  31.377  1.00  0.00     0.217 HD
ENDBRANCH  14  18
BRANCH  15  20
HETATM   20  O   UNL     1      21.921 -12.973  32.341  1.00  0.00    -0.358 OA
HETATM   21  H   UNL     1      22.300 -13.718  32.850  1.00  0.00     0.217 HD
ENDBRANCH  15  20
ENDBRANCH   8  12
BRANCH   9  22
HETATM   22  O   UNL     1      23.221  -8.606  36.645  1.00  0.00    -0.355 OA
HETATM   23  H   UNL     1      23.694  -7.863  37.076  1.00  0.00     0.218 HD
ENDBRANCH   9  22
BRANCH   2  24
HETATM   24  O   UNL     1      16.061  -6.273  38.535  1.00  0.00    -0.361 OA
HETATM   25  H   UNL     1      15.636  -7.036  38.958  1.00  0.00     0.217 HD
ENDBRANCH   2  24
BRANCH   4  26
HETATM   26  O   UNL     1      20.524  -5.273  39.663  1.00  0.00    -0.360 OA
HETATM   27  H   UNL     1      20.519  -5.611  40.586  1.00  0.00     0.217 HD
ENDBRANCH   4  26
TORSDOF 6
ENDMDL
